Version 4
SHEET 1 1132 680
WIRE -160 -160 -176 -160
WIRE -48 -160 -64 -160
WIRE -176 -144 -176 -160
WIRE -64 -144 -64 -160
WIRE -240 80 -336 80
WIRE 16 80 -112 80
WIRE 288 80 160 80
WIRE 496 80 432 80
WIRE 640 80 576 80
WIRE -240 112 -240 80
WIRE 640 144 640 80
WIRE -336 160 -336 80
WIRE 160 160 160 80
WIRE 192 160 160 160
WIRE -112 176 -112 80
WIRE -80 176 -112 176
WIRE 288 176 288 80
WIRE 288 176 256 176
WIRE 320 176 288 176
WIRE 432 176 432 80
WIRE 432 176 400 176
WIRE 480 176 432 176
WIRE 16 192 16 80
WIRE 16 192 -16 192
WIRE 32 192 16 192
WIRE 144 192 112 192
WIRE 192 192 144 192
WIRE 576 192 544 192
WIRE -240 208 -240 192
WIRE -80 208 -240 208
WIRE 480 208 464 208
WIRE -240 224 -240 208
WIRE 144 224 144 192
WIRE 640 256 640 240
WIRE 688 256 640 256
WIRE 640 288 640 256
WIRE -336 320 -336 240
WIRE -240 320 -240 304
WIRE 144 320 144 288
WIRE 640 400 640 368
FLAG 464 208 0
FLAG 512 160 VCC
FLAG 512 224 VEE
FLAG -176 -64 0
FLAG -176 -160 VCC
FLAG -64 -64 0
FLAG -64 -160 VEE
FLAG -336 80 IN
FLAG 688 256 OUT
IOPIN 688 256 Out
FLAG 144 320 0
FLAG 224 144 VCC
FLAG 224 208 VEE
FLAG 640 400 VEE
FLAG -48 160 VCC
FLAG -48 224 VEE
FLAG 288 80 LPF
FLAG 16 80 Level
FLAG -240 320 0
FLAG -336 320 0
SYMBOL Opamps\\UniversalOpamp2 512 192 R0
SYMATTR InstName U1
SYMBOL res 416 160 R90
WINDOW 0 0 56 VBottom 2
WINDOW 3 32 56 VTop 2
SYMATTR InstName R1
SYMATTR Value 10k
SYMBOL res 592 96 M270
WINDOW 0 32 56 VTop 2
WINDOW 3 0 56 VBottom 2
SYMATTR InstName R2
SYMATTR Value 1k
SYMBOL pnp 576 240 M180
SYMATTR InstName Q1
SYMBOL res 656 272 M0
SYMATTR InstName RL
SYMATTR Value {RL}
SYMBOL voltage -336 144 R0
WINDOW 3 -19 -125 Left 2
WINDOW 123 -58 38 Left 2
WINDOW 39 0 0 Left 2
WINDOW 0 -58 10 Left 2
SYMATTR Value PULSE(0 3.3 0 0.25 1f 0 0.25)
SYMATTR Value2 AC 1
SYMATTR InstName V1
SYMBOL voltage -176 -160 R0
SYMATTR InstName V2
SYMATTR Value 5V
SYMBOL voltage -64 -160 R0
WINDOW 123 0 0 Left 2
WINDOW 39 0 0 Left 2
SYMATTR InstName V3
SYMATTR Value -5V
SYMBOL cap 128 224 R0
SYMATTR InstName C1
SYMATTR Value 0.33uF
SYMBOL res 128 176 R90
WINDOW 0 0 56 VBottom 2
WINDOW 3 32 56 VTop 2
SYMATTR InstName R3
SYMATTR Value {Rfc}
SYMBOL Opamps\\UniversalOpamp2 224 176 R0
SYMATTR InstName U2
SYMBOL res -256 208 R0
SYMATTR InstName R4
SYMATTR Value {Rd}
SYMBOL res -256 96 R0
SYMATTR InstName R5
SYMATTR Value {10k-Rd}
SYMBOL Opamps\\UniversalOpamp2 -48 192 R0
SYMATTR InstName U3
TEXT 144 -168 Left 2 !.tran 1
TEXT 144 -80 Left 2 !.param RL 10k
TEXT 144 -136 Left 2 !;ac oct 20 1 100k
TEXT 144 -16 Left 2 !.step param Rfc 10k 100k 10k
TEXT 144 16 Left 2 !.param Rd 9.9k
